Circuit: * Z:\home\phckopper\Projects\fonte-introee-final\SImulacao_LTSpice\Fonte_Simetrica.asc

Direct Newton iteration for .op point succeeded.

Date: Thu Jul 04 21:17:23 2019
Total elapsed time: 4.424 seconds.

tnom = 27
temp = 27
method = modified trap
totiter = 479178
traniter = 479129
tranpoints = 171726
accept = 120655
rejected = 51071
matrix size = 39
fillins = 50
solver = Normal
Thread vector: 5.8/4.3[2] 2.8/2.7[1] 1.3/1.4[1] 0.6/1.3[1]  2592/500
Matrix Compiler1: 7.59 KB object code size  1.5/1.0/[0.7]
Matrix Compiler2: 4.76 KB object code size  0.7/1.0/[0.6]

