Circuit: * Z:\home\phckopper\Projects\fonte-introee-final\SImulacao_LTSpice\Fonte_Simetrica.asc

WARNING: Less than two connections to node -VCC.  This node is used by R2.
Direct Newton iteration failed to find .op point.  (Use ".option noopiter" to skip.)
Starting Gmin stepping
Gmin = 10
Gmin = 1.07374
Gmin = 0.115292
Gmin = 0.0123794
Gmin = 0.00132923
Gmin = 0.000142725
Gmin = 1.5325e-005
Gmin = 1.6455e-006
Gmin = 1.76685e-007
Gmin = 1.89714e-008
Gmin = 2.03704e-009
Gmin = 2.18725e-010
Gmin = 2.34854e-011
Gmin = 2.52173e-012
Gmin = 2.70769e-013
Gmin = 0
Gmin stepping succeeded in finding the operating point.


ripple: PP(v(+vout))=0.000157356 FROM 0.5 TO 1


Date: Tue Jun 25 21:11:23 2019
Total elapsed time: 0.464 seconds.

tnom = 27
temp = 80
method = modified trap
totiter = 13542
traniter = 13147
tranpoints = 3582
accept = 2542
rejected = 1040
matrix size = 47
fillins = 46
solver = Normal
Thread vector: 16.7/10.0[3] 9.8/4.3[3] 3.6/5.9[1] 0.7/1.4[1]  2592/500
Matrix Compiler1:     403 opcodes  2.2/[1.4]/2.4
Matrix Compiler2: 5.38 KB object code size  1.2/3.1/[0.9]

