Circuit: * Z:\home\phckopper\Projects\fonte-introee-final\SImulacao_LTSpice\Reguladores\Draft1.asc

Direct Newton iteration for .op point succeeded.

Date: Fri Jul 05 14:18:37 2019
Total elapsed time: 0.072 seconds.

tnom = 27
temp = 27
method = modified trap
totiter = 2102
traniter = 2088
tranpoints = 1045
accept = 1045
rejected = 0
matrix size = 10
fillins = 2
solver = Normal
Matrix Compiler1:      31 opcodes  0.5/[0.4]/0.4
Matrix Compiler2: 906 bytes object code size  0.5/0.5/[0.4]

